*Heading
Axisymmetric bursting drop
**
** This input file is for the simulation of the electrovacitation instability 
**    undergone by a conducting drop in a dielectric elastomeric matrix.  
**    It is to be used with uel_ViscoDielectric_Public.for.
**
** UNITS:  Length - meters, Time - sec, Angle - radians,
**	   Force - Newtons, Stress - Newton/meter^2 = Pa, 
**	   Mass - kilograms, Density - kg/meter^3, Energy - Joules
**
** The electrical units are chosen so that the permittivity is unity.
**
** To interpret the simulated electric potential in volts for a real material:
**
**       real potential = simulated potential/sqrt(real permittivity)
**
** To interpret the simulated charge in coulombs for a real material:
** 
**       real charge = simulated charge*sqrt(real permittivity))
**
** REDUCED INTEGRATION: In order to use reduced integration three 
**     changes should be made:
**
**     1. In the '*User element' command, Variables should be changed
**        from 36 to 9.
**     2. The element type of the dummy mesh should be changed
**        from CAX4 to CAX4R.
**     3. In the Material Definition section of this input file,
**        the '*Hourglass Stiffness' command and subsequent line
**        should be uncommented.
**     4. In the UEL subroutine, nInt should be set to 1.
**
** DISPLACEMENT STEP RESTRICTION: To specify the maximum allowable 
**     displacement increment in terms of a fraction of the element
**     size, set the parameter maxDisp in the UEL subroutine.  For 
**     the bursting simulations, maxDisp=0.25 was used.
**
** Shuolun Wang, November 2015
**
************************************************************************
**			PARAMETERS
************************************************************************
**
*Parameter
** Initial total height (taken directly from the mesh)
H0 = 100.0
**
** Initial bubble radius (taken directly from the mesh)
R0 = 0.5
** 
** Shear modulus (Pa)
Gshr = 15.36e3
**
** locking stretch (set less than zero for neoHookean)
lamL = 5.99
**
** Bulk modulus (Pa)
Kblk = 1000.0*Gshr
**
** Number of nonequilibrium viscous mechanisms
nVisco = 3
**
** Number of local SDVs
nlSdv = 6*nVisco
**
** Nonequilibrium shear modulli, you need nVisco of them (Pa)
G1 = 26.53e3
G2 = 10.83e3
G3 = 26.06e3
**
** Maxwell element relaxation time, you need nVisco of them (sec)
tau1 = 6.56
tau2 = 61.25
tau3 = 0.6074
**
** total props and jprops
nProps = 4 + nVisco*2
nJProps = 3
**
** number of volume integration points
nInt = 4
**
** total of local SDV's per element
nVars = nlSdv*nInt
**
** Permittivity (arbitrary units)
permit = 1.0
**
** Normalized referential electric field (dimensionless)
phi_norm = 1.0
**
** Final potential
phi = sqrt(Gshr/permit)*(H0*phi_norm)
halfPhi = phi/2.0
**
** Normalized surface tension (elasto-capillary number)
gamma_norm = 0.1
**
** Surface tension (N/m)
gamma = gamma_norm*Gshr*R0
**
** rate for prescribing the normalized potential (per second)
rate = 1.e-5
**
** ramp time for the potential (seconds)
tRamp = phi_norm/rate
**
** Hourglass stiffness (Pa)
Ghour = 0.005*Gshr
**
** Interval time (s)
tInt = tRamp/20
**
dtInit = tInt/4.0
dtMin = 1e-12
dtMax = tInt/2.0
**
**
************************************************************************
**			MODEL DEFINITION
************************************************************************
**
** Nodes
**
*Node, nset=nall
      1,           0.,   4.64194679
      2,   2.64194703,           2.
      3,           0., -0.641946971
      4,           0.,         -48.
      5,          50.,         -48.
      6,          50.,          52.
      7,           0.,          52.
      8,           0.,          2.5
      9,          0.5,           2.
     10,           0.,          1.5
     11, 0.0829855576,    4.6406436
     12,  0.165889218,   4.63673353
     13,  0.248629183,   4.63022184
     14,  0.331123769,   4.62111425
     15,  0.413291574,    4.6094203
     16,  0.495051503,   4.59515095
     17,  0.576322854,    4.5783205
     18,  0.657025516,   4.55894518
     19,   0.73707974,     4.537045
     20,  0.816406548,   4.51264095
** ... 3736 like lines cut

   3757,  0.247245044,   2.76094198
   3758,  0.239115924,   2.73592305
   3759,  0.231249481,   2.71171284
   3760,  0.223637223,   2.68828464
   3761,  0.216270924,   2.66561341
   3762,   0.20914264,   2.64367485
   3763,  0.202244699,   2.62244511
   3764,  0.195569634,   2.60190153
   3765,  0.189110264,   2.58202147
   3766,  0.182859614,   2.56278396
   3767,   0.17681092,     2.544168
   3768,  0.170957685,   2.52615356
   3769,  0.165293574,   2.50872135
   3770,   0.15981248,   2.49185228
   3771,  0.865857065,    4.4050107
   3772,  0.837725818,   4.32687283
   3773,  0.810503542,   4.25126028
   3774,  0.784160852,   4.17809057
   3775,  0.758669376,    4.1072855
   3776,  0.734001577,   4.03876781
** ... 4355 like lines cut
**
**
** Elements
**
*User Element,Nodes=4,Type=U2,Iproperties=<nJProps>,Properties=<nProps>,Coordinates=2,Variables=<nVars>,Unsymm
1,2,11
*Element, type=U2, elset=elall
1,   12, 2398, 1015,   11
   2, 2595,   20,   21, 1018
   3, 1245, 1201, 1243, 1269
   4, 1340,  468, 1376, 1395
   5, 1483, 1488, 3037, 1466
   6, 1525, 1545, 1630,  466
   7, 1544, 1533,  465, 1829
   8,  464, 1909, 1729, 3271
   9, 3275, 3270, 1981, 2000
  10, 2005, 2047, 2050, 2013
  11, 3198, 2047,  461, 2071
  12, 2081,  460, 2099,  768
  13,  459, 3029, 2162, 2116
  14,  766, 2265, 2246, 2237
  15,  765, 2304, 2282, 2959
  16, 2304, 2376, 2311, 2282
  17, 2382, 1885,  764, 2376
  18,  454, 1776,  763, 1885
  19,  184, 1656,  453,  183
  20, 1656,  184,  185, 1579
** ... 7934 like lines cut
*System
**
** Make the dummy mesh, shares nodes with the real mesh,
**  allows visualization of the results, access to 
**  hourglass controls, and access to mechanical, 
**  traction-type boundary conditions
**
*Element, type=CAX4H, elset=eldummy
10001,12,2398,1015,11
10002,2595,20,21,1018
10003,1245,1201,1243,1269
10004,1340,468,1376,1395
10005,1483,1488,3037,1466
10006,1525,1545,1630,466
10007,1544,1533,465,1829
10008,464,1909,1729,3271
10009,3275,3270,1981,2000
10010,2005,2047,2050,2013
10011,3198,2047,461,2071
10012,2081,460,2099,768
10013,459,3029,2162,2116
10014,766,2265,2246,2237
10015,765,2304,2282,2959
10016,2304,2376,2311,2282
10017,2382,1885,764,2376
10018,454,1776,763,1885
10019,184,1656,453,183
10020,1656,184,185,1579
** ... 7934 like lines cut
*Nset, nset=Dielectric-1_top
   6,   7, 207, 208, 209, 210, 211, 212, 213, 214, 215, 216, 217, 218, 219, 220
 221, 222, 223, 224, 225, 226, 227, 228, 229, 230
*Nset, nset=TopRight
6
*Elset, elset=Dielectric-1_top
   34,   35,   36,   37,  419,  433,  434,  447,  458,  467,  468,  477,  484,  492,  505,  506
  511,  513,  514,  517,  519,  520,  521, 1083, 1846
*Nset, nset=Dielectric-1_bottom
   4,   5, 134, 135, 136, 137, 138, 139, 140, 141, 142, 143, 144, 145, 146, 147
 148, 149, 150, 151, 152, 153, 154, 155, 156, 157
*Nset, nset=BottomRight
5
*Elset, elset=Dielectric-1_bottom
  100,  101,  102,  120,  121,  135,  151,  152,  178,  179,  191,  192,  203,  214,  215,  232
  233,  241,  242,  253,  257,  262,  263,  265, 1074
*Nset, nset=Dielectric-1_right
   5,   6, 158, 159, 160, 161, 162, 163, 164, 165, 166, 167, 168, 169, 170, 171
 172, 173, 174, 175, 176, 177, 178, 179, 180, 181, 182, 183, 184, 185, 186, 187
 188, 189, 190, 191, 192, 193, 194, 195, 196, 197, 198, 199, 200, 201, 202, 203
 204, 205, 206
*Elset, elset=Dielectric-1_right
   19,   20,   21,   22,   67,   68,   69,  265,  266,  268,  283,  321,  332,  342,  371,  379
  385,  386,  392,  400,  401,  405,  420,  421,  436,  459,  460,  470,  478,  479,  486,  500
  501,  508,  512,  516,  519, 1075, 1076, 1077, 1078, 1079, 1080, 1081, 1082, 1835, 1836, 1838
 1884, 1885
*Nset, nset=Dielectric-1_left
   1,   3,   4,   7,   8,  10, 109, 110, 111, 112, 113, 114, 115, 116, 117, 118
 119, 120, 121, 122, 123, 124, 125, 126, 127, 128, 129, 130, 131, 132, 133, 231
 232, 233, 234, 235, 236, 237, 238, 239, 240, 241, 242, 243, 244, 245, 246, 247
 248, 249, 250, 251, 252, 253, 254, 255, 256, 257, 258, 259, 260, 261, 262, 263
 264, 265, 266, 267, 268, 269, 270, 271, 272, 273, 274, 275, 276, 277, 278, 279
 280, 281, 282, 283, 284, 285, 286, 287, 288, 289, 290, 291, 292, 293, 294, 295
 296, 297, 298, 299, 300, 301, 302, 303, 304, 403, 404, 405, 406, 407, 408, 409
 410, 411, 412, 413, 414, 415, 416, 417, 418, 419, 420, 421, 422, 423, 424, 425
 426, 427, 428, 429, 430, 431, 432, 433, 434, 435, 436, 437, 438, 439, 440, 441
 442, 443, 444, 445, 446, 447, 448, 449, 450, 451
*Elset, elset=Dielectric-1_left
   86,   88,   90,   92,   93,   94,   95,   96,   97,   98,   99,  100,  521,  524,  526,  528
  529,  531,  532,  533,  584,  599,  623,  641,  668,  691,  716,  903,  984, 1001, 1022, 1032
 1044, 1045, 1051, 1066, 1067, 1069, 1070, 1071, 1084, 1085, 1086, 1087, 1088, 1089, 1178, 1195
 1235, 1359, 1871, 1924, 2955, 2956, 2957, 2958, 2959, 2960, 2961, 2962, 2963, 2964, 2965, 2966
 2967, 2968, 2969, 2970, 2971, 2972, 2973, 2974, 2975, 2976, 2977, 2978, 2979, 2980, 2981, 2982
 2983, 2984, 2985, 2986, 2987, 2988, 2989, 2990, 2991, 2992, 2993, 2994, 2995, 2996, 2997, 2998
 2999, 3000, 3001, 3002, 3003, 3004, 7905, 7906, 7907, 7908, 7909, 7910, 7911, 7912, 7913, 7914
 7915, 7916, 7917, 7918, 7919, 7920, 7921, 7922, 7923, 7924, 7925, 7926, 7927, 7928, 7929, 7930
 7931, 7932, 7933, 7934, 7935, 7936, 7937, 7938, 7939, 7940, 7941, 7942, 7943, 7944, 7945, 7946
 7947, 7948, 7949, 7950, 7951, 7952, 7953, 7954
*Nset, nset=Dielectric-1_cav
   8,   9,  10, 305, 306, 307, 308, 309, 310, 311, 312, 313, 314, 315, 316, 317
 318, 319, 320, 321, 322, 323, 324, 325, 326, 327, 328, 329, 330, 331, 332, 333
 334, 335, 336, 337, 338, 339, 340, 341, 342, 343, 344, 345, 346, 347, 348, 349
 350, 351, 352, 353, 354, 355, 356, 357, 358, 359, 360, 361, 362, 363, 364, 365
 366, 367, 368, 369, 370, 371, 372, 373, 374, 375, 376, 377, 378, 379, 380, 381
 382, 383, 384, 385, 386, 387, 388, 389, 390, 391, 392, 393, 394, 395, 396, 397
 398, 399, 400, 401, 402
*Nset, nset=most
   9,  10, 305, 306, 307, 308, 309, 310, 311, 312, 313, 314, 315, 316, 317
 318, 319, 320, 321, 322, 323, 324, 325, 326, 327, 328, 329, 330, 331, 332, 333
 334, 335, 336, 337, 338, 339, 340, 341, 342, 343, 344, 345, 346, 347, 348, 349
 350, 351, 352, 353, 354, 355, 356, 357, 358, 359, 360, 361, 362, 363, 364, 365
 366, 367, 368, 369, 370, 371, 372, 373, 374, 375, 376, 377, 378, 379, 380, 381
 382, 383, 384, 385, 386, 387, 388, 389, 390, 391, 392, 393, 394, 395, 396, 397
 398, 399, 400, 401, 402
*Nset, nset=Dielectric-1_toptip
 8,
*Nset, nset=Dielectric-1_bottomtip
 10,
*Nset, nset=RightMiddle
182
*Nset, nset=Dielectric-1_Zoom
    1,    2,    3,    8,    9,   10,   11,   12,   13,   14,   15,   16,   17,   18,   19,   20
   21,   22,   23,   24,   25,   26,   27,   28,   29,   30,   31,   32,   33,   34,   35,   36
   37,   38,   39,   40,   41,   42,   43,   44,   45,   46,   47,   48,   49,   50,   51,   52
   53,   54,   55,   56,   57,   58,   59,   60,   61,   62,   63,   64,   65,   66,   67,   68
   69,   70,   71,   72,   73,   74,   75,   76,   77,   78,   79,   80,   81,   82,   83,   84
   85,   86,   87,   88,   89,   90,   91,   92,   93,   94,   95,   96,   97,   98,   99,  100
  101,  102,  103,  104,  105,  106,  107,  108,  256,  257,  258,  259,  260,  261,  262,  263
  264,  265,  266,  267,  268,  269,  270,  271,  272,  273,  274,  275,  276,  277,  278,  279
  280,  281,  282,  283,  284,  285,  286,  287,  288,  289,  290,  291,  292,  293,  294,  295
  296,  297,  298,  299,  300,  301,  302,  303,  304,  305,  306,  307,  308,  309,  310,  311
  312,  313,  314,  315,  316,  317,  318,  319,  320,  321,  322,  323,  324,  325,  326,  327
  328,  329,  330,  331,  332,  333,  334,  335,  336,  337,  338,  339,  340,  341,  342,  343
  344,  345,  346,  347,  348,  349,  350,  351,  352,  353,  354,  355,  356,  357,  358,  359
  360,  361,  362,  363,  364,  365,  366,  367,  368,  369,  370,  371,  372,  373,  374,  375
  376,  377,  378,  379,  380,  381,  382,  383,  384,  385,  386,  387,  388,  389,  390,  391
  392,  393,  394,  395,  396,  397,  398,  399,  400,  401,  402,  403,  404,  405,  406,  407
  408,  409,  410,  411,  412,  413,  414,  415,  416,  417,  418,  419,  420,  421,  422,  423
  424,  425,  426,  427,  428,  429,  430,  431,  432,  433,  434,  435,  436,  437,  438,  439
  440,  441,  442,  443,  444,  445,  446,  447,  448,  449,  450,  451, 3281, 3282, 3283, 3284
 3285, 3286, 3287, 3288, 3289, 3290, 3291, 3292, 3293, 3294, 3295, 3296, 3297, 3298, 3299, 3300
** ... 302 like lines cut
*Elset, elset=Dielectric-1_Zoom, generate
 2955,  7954,     1
*Elset, elset=ZoomDummy, generate
 12955, 17954,    1
**
** Cavity surface
**
*Elset, elset=elcav, generate
 3004,  7954,    50
*Elset, elset=elCavDum, generate
 13004, 17954,   50
*Surface, type=ELEMENT, name=surfCav
elCavDum, S2
**
** Reference node for imposing fluid-filled cavity and constraint
**
*Node, nset=nCav
99998, 0.0, 2.0, 0.0
**
** Make a dummy element which is not connected to anything with CAX4T
**  just so that we can have the coupled thermal-displacement
**
*Node
999996,  0.0, 0.0
999997,  .00001, 0.0
999998,  .00001, .00001
999999,  0.0, .00001
*Nset, nset=tempElement
999996,999997,999998,999999
*Element, Type=CAX4T
999999,999996,999997,999998,999999
*Elset,elset=tempElement
999999
************************************************************************
**			MATERIAL DEFINITION
************************************************************************
**
** Material properties for the real material
**
*uel property,elset=elall
*******************************************************************
**Gshr	lamL	Kblk	permit		Gneq	tau	Gneq	tau
<Gshr>,	<lamL>,	<Kblk>,	<permit>,	<G1>,	<tau1>,	<G2>,	<tau2>,
**
**Gneq	tau	nVisco		nlSdv		nInt
<G3>,	<tau3>,	<nVisco>,	<nlSdv>,	<nInt>
**
*******************************************************************
**
** Dummy mesh material properties
**
*Solid section, elset=ElDummy, material=Material-1
***Hourglass stiffness
**<Ghour>
*Solid section, elset=tempElement, material=Material-2
**
*Material, name=Material-1
** The dummy mesh stiffness is very small
*Elastic
1.e-20
*Density
1.0
*User output variables
1
**
*Material, name=Material-2
*Elastic
1.e-20
*Conductivity
1.0
*Density
1.0
*Specific heat
1.0
**
************************************************************************
**			INITIAL CONDITIONS
************************************************************************
*Initial conditions, type=temperature
nall, 0.0
tempElement, 0.0
**
************************************************************************
**			BOUNDARY CONDITIONS
************************************************************************
** use an equation to keep the potential the same all along the surface
**  of the conductive liquid to solid surface. This equation should be
**  commented out to model a non-conductive drop
*Equation
2
most,11,1.0,8,11,-1.0
**
************************************************************************
**			   AMPLITUDE
************************************************************************
*Amplitude, name=Amp-1
0.0,0.0,<tRamp>,1.0
*Amplitude, name=Amp-2
0.0,1.0,<tRamp>,1.0
*Amplitude, name=Amp-3
0.0,1.0,<tRamp>,0.0
************************************************************************
**		     FLUID CAVITY BEHAVIOR
************************************************************************
*Fluid Behavior, name=IntProp-1
*Fluid Density
1000.
*Fluid Bulk Modulus
1365000000000
************************************************************************
**			  FLUID CAVITY
************************************************************************
*Fluid Cavity, name=Int-1, behavior=IntProp-1, refnode=nCav, surface=surfCav

************************************************************************
**			STEP DEFINITION
************************************************************************
*Step, Name=Actuate, nlgeom=yes, unsymm=yes, inc=50000
*Coupled temperature-displacement, deltmx=100000.0
<dtInit>,<tRamp>,<dtMin>,<dtMax>
*Controls, parameters=line search
10,1.0,0.0001,0.25,0.10
*Controls, parameters=time incrementation
,,,,,,,20,,,,,,
**
*Boundary
Dielectric-1_bottom, YSYMM
Dielectric-1_left, XSYMM
Dielectric-1_right, XSYMM
Dielectric-1_top, YSYMM
**
*Boundary, amplitude=Amp-1
Dielectric-1_top,11,11,<halfPhi>
Dielectric-1_bottom,11,11,-<halfPhi>
RightMiddle,11,11,0.0
**
*Dload, amplitude=Amp-2
elCav,U12,<gamma>
**
*Boundary
tempElement,encastre
tempElement,11,11,0.0
**
**
*Output, field, time interval=<tInt>
*node output, nset=nall
u,nt
*node output, nset=tempElement
u
*node output, nset=nCav
u
*Element output, elset=ElDummy
le,uvarm
**
*Output, history, frequency=1
*node output, nset=Dielectric-1_toptip
u2,nt11
*node output, nset=BottomRight
nt11
*node output, nset=TopRight
nt11
**node Output, nset=nCav
**cvol, pcav
**
*End Step
************************************************************************
*Step, Name=Unloading, nlgeom=yes, unsymm=yes, inc=50000
*Coupled temperature-displacement, deltmx=100000.0
<dtInit>,<tRamp>,<dtMin>,<dtMax>
*Controls, parameters=line search
10,1.0,0.0001,0.25,0.10
*Controls, parameters=time incrementation
,,,,,,,20,,,,,,
**
*Boundary
Dielectric-1_bottom, YSYMM
Dielectric-1_left, XSYMM
Dielectric-1_right, XSYMM
Dielectric-1_top, YSYMM
**
*Boundary, amplitude=Amp-3
Dielectric-1_top,11,11,<halfPhi>
Dielectric-1_bottom,11,11,-<halfPhi>
RightMiddle,11,11,0.0
**
*Dload, amplitude=Amp-2
elCav,U12,<gamma>
**
*Boundary
tempElement,encastre
tempElement,11,11,0.0
**
**
*Output, field, time interval=<tInt>
*node output, nset=nall
u,nt
*node output, nset=tempElement
u
*node output, nset=nCav
u
*Element output, elset=ElDummy
le,uvarm
**
*Output, history, frequency=1
*node output, nset=Dielectric-1_toptip
u2,nt11
*node output, nset=BottomRight
nt11
*node output, nset=TopRight
nt11
**node Output, nset=nCav
**cvol, pcav
**
*End Step
************************************************************************





